@<TRIPOS>MOLECULE
PDI
   78    84     1     0     0
SMALL
rc

@<TRIPOS>ATOM
      1 O1         -5.8120   -2.1750   -0.0750 o         1 PDI        -0.428016
      2 C1         -5.0920   -1.2150   -0.1220 c         1 PDI         0.331595
      3 N1         -5.6820    0.0350   -0.1780 n         1 PDI         0.054967
      4 C2         -3.6150   -1.2760   -0.1220 ca        1 PDI        -0.032322
      5 C3         -2.8760   -0.0500   -0.1420 ca        1 PDI        -0.113226
      6 C4         -1.4650   -0.0900   -0.0950 ca        1 PDI         0.021356
      7 C5         -0.7230    1.1230   -0.1630 ca        1 PDI         0.020634
      8 C6         -1.4050    2.3090   -0.1590 ca        1 PDI        -0.046758
      9 C7         -2.8140    2.3990   -0.1740 ca        1 PDI        -0.023335
     10 C8         -3.3850    3.8130   -0.1180 c3        1 PDI         0.007485
     11 C9         -3.8790    4.2010    1.2880 c3        1 PDI         0.040732
     12 P1         -4.3640    5.9680    1.4720 p5        1 PDI         0.797982
     13 O2         -2.9060    6.7070    1.2100 oh        1 PDI        -0.580382
     14 O3         -5.2760    6.3510    0.3740 o         1 PDI        -0.730396
     15 O4         -4.6820    6.2000    2.9070 o         1 PDI        -0.730396
     16 C10        -3.5390    1.2150   -0.2060 ca        1 PDI        -0.032322
     17 C11        -5.0150    1.2420   -0.3290 c         1 PDI         0.331595
     18 O5         -5.6540    2.2340   -0.5450 o         1 PDI        -0.428016
     19 C12        -0.8030   -1.3440    0.0250 ca        1 PDI         0.020634
     20 C13         0.6720   -1.3730    0.1830 ca        1 PDI         0.020634
     21 C14         1.4150   -0.1770   -0.0110 ca        1 PDI         0.021356
     22 C15         2.8220   -0.2210    0.0240 ca        1 PDI        -0.113226
     23 C16         3.5800    0.9780   -0.1480 ca        1 PDI        -0.032322
     24 C17         5.0510    0.9270    0.1030 c         1 PDI         0.331595
     25 O6          5.7340    1.9090    0.2090 o         1 PDI        -0.428016
     26 C18         2.9450    2.1660   -0.4670 ca        1 PDI        -0.023335
     27 C19         3.6150    3.4890   -0.8240 c3        1 PDI         0.007485
     28 C20         4.1700    3.4980   -2.2610 c3        1 PDI         0.040732
     29 P2          4.6780    5.1530   -2.8860 p5        1 PDI         0.797982
     30 O7          5.5560    5.8160   -1.8990 o         1 PDI        -0.730396
     31 O8          3.2160    5.9320   -2.8810 oh        1 PDI        -0.580382
     32 O9          5.0440    5.0030   -4.3210 o         1 PDI        -0.730396
     33 C21         1.5280    2.1650   -0.5040 ca        1 PDI        -0.046758
     34 C22         0.7620    1.0650   -0.2330 ca        1 PDI         0.020634
     35 C23         3.4790   -1.4700    0.2280 ca        1 PDI        -0.032322
     36 C24         4.9510   -1.5130    0.0360 c         1 PDI         0.331595
     37 N2          5.6260   -0.3200    0.2130 n         1 PDI         0.054967
     38 O10         5.5520   -2.4900   -0.3050 o         1 PDI        -0.428016
     39 C25         2.7590   -2.5990    0.5430 ca        1 PDI        -0.023335
     40 C26         3.3380   -3.9380    0.9760 c3        1 PDI         0.007485
     41 C27         3.3920   -4.0840    2.5190 c3        1 PDI         0.040732
     42 P3          4.9940   -3.6040    3.2890 p5        1 PDI         0.797982
     43 O11         5.3150   -2.1970    2.9280 o         1 PDI        -0.730396
     44 O12         4.5290   -3.5540    4.8790 oh        1 PDI        -0.580382
     45 O13         5.9520   -4.7180    3.1210 o         1 PDI        -0.730396
     46 C28         1.3480   -2.5150    0.5120 ca        1 PDI        -0.046758
     47 C29        -1.5500   -2.4890   -0.0080 ca        1 PDI        -0.046758
     48 C30        -2.9590   -2.4990   -0.0800 ca        1 PDI        -0.023335
     49 C31        -3.5990   -3.8830   -0.1080 c3        1 PDI         0.007485
     50 C32        -3.9540   -4.3590   -1.5280 c3        1 PDI         0.040732
     51 P4         -4.4630   -6.1270   -1.5880 p5        1 PDI         0.797982
     52 O14        -3.2860   -6.9670   -1.2780 o         1 PDI        -0.730396
     53 O15        -4.7950   -6.2510   -3.2100 oh        1 PDI        -0.580382
     54 O16        -5.7740   -6.3070   -0.9100 o         1 PDI        -0.730396
     55 H1         -0.8640    3.2330   -0.1470 ha        1 PDI         0.027869
     56 H2         -4.1900    3.9410   -0.8200 hc        1 PDI         0.041071
     57 H3         -2.5900    4.4930   -0.4000 hc        1 PDI         0.041071
     58 H4         -4.7440    3.6020    1.5520 hc        1 PDI        -0.024198
     59 H5         -3.1090    3.9920    2.0270 hc        1 PDI        -0.024198
     60 H6         -2.5540    6.9210    2.0630 ho        1 PDI         0.330012
     61 H7          2.8660    4.2660   -0.7400 hc        1 PDI         0.041071
     62 H8          4.4100    3.7250   -0.1380 hc        1 PDI         0.041071
     63 H9          5.0360    2.8450   -2.3210 hc        1 PDI        -0.024198
     64 H10         3.4280    3.1040   -2.9520 hc        1 PDI        -0.024198
     65 H11         2.9080    5.9270   -3.7770 ho        1 PDI         0.330012
     66 H12         1.0570    3.0970   -0.7410 ha        1 PDI         0.027869
     67 H13         4.3120   -4.0980    0.5510 hc        1 PDI         0.041071
     68 H14         2.6840   -4.7080    0.5750 hc        1 PDI         0.041071
     69 H15         3.2200   -5.1240    2.7800 hc        1 PDI        -0.024198
     70 H16         2.5890   -3.5110    2.9750 hc        1 PDI        -0.024198
     71 H17         4.4360   -2.6340    5.0900 ho        1 PDI         0.330012
     72 H18         0.8060   -3.4110    0.7400 ha        1 PDI         0.027869
     73 H19        -1.0650   -3.4430    0.0240 ha        1 PDI         0.027869
     74 H20        -2.8810   -4.5790    0.3090 hc        1 PDI         0.041071
     75 H21        -4.4840   -3.9150    0.5040 hc        1 PDI         0.041071
     76 H22        -4.7530   -3.7450   -1.9280 hc        1 PDI        -0.024198
     77 H23        -3.0930   -4.2480   -2.1820 hc        1 PDI        -0.024198
     78 H24        -5.7400   -6.2590   -3.2700 ho        1 PDI         0.330012
@<TRIPOS>BOND
     1     1     2 2  
     2     2     3 1  
     3     2     4 1  
     4     4     5 ar 
     5     5     6 ar 
     6     6     7 ar 
     7     7     8 ar 
     8     8     9 ar 
     9     9    10 1  
    10    10    11 1  
    11    11    12 1  
    12    12    13 1  
    13    12    14 1  
    14    12    15 1  
    15     9    16 ar 
    16    16    17 1  
    17    17    18 2  
    18     6    19 ar 
    19    19    20 ar 
    20    20    21 ar 
    21    21    22 ar 
    22    22    23 ar 
    23    23    24 1  
    24    24    25 2  
    25    23    26 ar 
    26    26    27 1  
    27    27    28 1  
    28    28    29 1  
    29    29    30 1  
    30    29    31 1  
    31    29    32 1  
    32    26    33 ar 
    33    33    34 ar 
    34    22    35 ar 
    35    35    36 1  
    36    36    37 1  
    37    36    38 2  
    38    35    39 ar 
    39    39    40 1  
    40    40    41 1  
    41    41    42 1  
    42    42    43 1  
    43    42    44 1  
    44    42    45 1  
    45    39    46 ar 
    46    19    47 ar 
    47    47    48 ar 
    48    48    49 1  
    49    49    50 1  
    50    50    51 1  
    51    51    52 1  
    52    51    53 1  
    53    51    54 1  
    54    17     3 1  
    55    48     4 ar 
    56    16     5 ar 
    57    34     7 ar 
    58    46    20 ar 
    59    34    21 ar 
    60    37    24 1  
    61     8    55 1  
    62    10    56 1  
    63    10    57 1  
    64    11    58 1  
    65    11    59 1  
    66    13    60 1  
    67    27    61 1  
    68    27    62 1  
    69    28    63 1  
    70    28    64 1  
    71    31    65 1  
    72    33    66 1  
    73    40    67 1  
    74    40    68 1  
    75    41    69 1  
    76    41    70 1  
    77    44    71 1  
    78    46    72 1  
    79    47    73 1  
    80    49    74 1  
    81    49    75 1  
    82    50    76 1  
    83    50    77 1  
    84    53    78 1  
@<TRIPOS>SUBSTRUCTURE
     1 PDI         1 TEMP              0 ****  ****    0 ROOT
