@<TRIPOS>MOLECULE
CY5
   75    78     1     0     0
SMALL
bcc


@<TRIPOS>ATOM
      1 C1           7.6990    -1.6760    -2.7720 ca         1 CY5      -0.163000
      2 C2           8.1080    -1.7990    -1.4360 ca         1 CY5      -0.098000
      3 C3           7.2050    -1.6070    -0.3780 ca         1 CY5      -0.167000
      4 C4           5.8880    -1.2900    -0.7150 ca         1 CY5       0.056000
      5 C5           5.4600    -1.1660    -2.0440 ca         1 CY5      -0.130000
      6 C6           6.3640    -1.3590    -3.0830 ca         1 CY5      -0.080000
      7 C7           3.9720    -0.8340    -2.0720 c3         1 CY5       0.025000
      8 C8           3.6400    -0.7810    -0.5630 c2         1 CY5       0.051000
      9 C9           2.4140    -0.5080     0.0430 c2         1 CY5      -0.226000
     10 C10          1.2000    -0.2550    -0.6100 c2         1 CY5      -0.082000
     11 C11          0.0000     0.0000     0.0630 c2         1 CY5      -0.171000
     12 C12         -7.6990     1.6760    -2.7720 ca         1 CY5      -0.159000
     13 C13         -8.1080     1.7990    -1.4360 ca         1 CY5      -0.103000
     14 C14         -7.2050     1.6070    -0.3780 ca         1 CY5      -0.158000
     15 C15         -5.8880     1.2900    -0.7150 ca         1 CY5       0.042000
     16 C16         -5.4600     1.1660    -2.0440 ca         1 CY5      -0.121000
     17 C17         -6.3640     1.3590    -3.0830 ca         1 CY5      -0.083000
     18 C18         -3.9720     0.8340    -2.0720 c3         1 CY5       0.035000
     19 C19         -3.6400     0.7810    -0.5630 c2         1 CY5       0.066000
     20 C20         -2.4140     0.5080     0.0430 c2         1 CY5      -0.254000
     21 C21         -1.2000     0.2550    -0.6100 c2         1 CY5      -0.032000
     22 N1          -4.7830     1.0550     0.1480 nh         1 CY5      -0.181000
     23 C22         -4.9130     1.1520     1.6130 c3         1 CY5      -0.040000
     24 C23         -5.5360    -0.0970     2.2650 c3         1 CY5      -0.230000
     25 C24         -4.6900    -1.3560     2.1850 c3         1 CY5      -0.024000
     26 O1          -3.4350    -1.0810     2.9580 o          1 CY5      -0.362000
     27 C25         -3.1880     1.9670    -2.7950 c3         1 CY5      -0.198000
     28 C26         -3.7360    -0.5360    -2.7650 c3         1 CY5      -0.198000
     29 N2           4.7830    -1.0550     0.1480 nh         1 CY5      -0.210000
     30 C27          4.9130    -1.1520     1.6130 c3         1 CY5      -0.023000
     31 C28          5.5360     0.0970     2.2650 c3         1 CY5      -0.204000
     32 C29          4.6900     1.3560     2.1850 c3         1 CY5       0.001000
     33 O5           3.4350     1.0810     2.9580 os         1 CY5      -0.727000
     34 P2           2.2740     2.3150     3.1780 p3         1 CY5       2.451000
     35 O6           1.5610     2.9340     1.9090 o          1 CY5      -0.982000
     36 O7           1.1650     1.4980     4.1750 o          1 CY5      -0.982000
     37 C30          3.1880    -1.9670    -2.7950 c3         1 CY5      -0.197500
     38 C31          3.7360     0.5360    -2.7650 c3         1 CY5      -0.197500
     39 H1           8.4160    -1.8280    -3.5710 ha         1 CY5       0.134000
     40 H2           9.1400    -2.0460    -1.2100 ha         1 CY5       0.132000
     41 H3           7.5320    -1.7040     0.6500 ha         1 CY5       0.137000
     42 H4           6.0490    -1.2690    -4.1180 ha         1 CY5       0.136000
     43 H5           2.3840    -0.4780     1.1280 ha         1 CY5       0.145000
     44 H6           1.1600    -0.2530    -1.6960 ha         1 CY5       0.122000
     45 H7           0.0000     0.0000     1.1510 ha         1 CY5       0.134000
     46 H8          -8.4160     1.8280    -3.5710 ha         1 CY5       0.133000
     47 H9          -9.1400     2.0460    -1.2100 ha         1 CY5       0.132000
     48 H10         -7.5320     1.7040     0.6500 ha         1 CY5       0.138000
     49 H11         -6.0490     1.2690    -4.1180 ha         1 CY5       0.136000
     50 H12         -2.3840     0.4780     1.1280 ha         1 CY5       0.212000
     51 H13         -1.1600     0.2530    -1.6960 ha         1 CY5       0.131000
     52 H14         -3.9310     1.3580     2.0380 h1         1 CY5       0.100500
     53 H15         -5.5430     2.0210     1.8260 h1         1 CY5       0.100500
     54 H16         -5.7360     0.1370     3.3160 hc         1 CY5       0.102500
     55 H17         -6.5020    -0.3220     1.7970 hc         1 CY5       0.102500
     56 H18         -5.2010    -2.2050     2.6450 h1         1 CY5       0.095000
     57 H19         -4.4070    -1.6080     1.1590 h1         1 CY5       0.095000
     58 H22         -2.1150     1.7610    -2.8210 hc         1 CY5       0.083833
     59 H23         -3.5470     2.0480    -3.8260 hc         1 CY5       0.083833
     60 H24         -3.3460     2.9280    -2.2970 hc         1 CY5       0.083833
     61 H25         -4.0930    -0.4810    -3.7990 hc         1 CY5       0.083833
     62 H26         -2.6760    -0.8010    -2.7830 hc         1 CY5       0.083833
     63 H27         -4.2860    -1.3320    -2.2520 hc         1 CY5       0.083833
     64 H28          3.9310    -1.3580     2.0380 h1         1 CY5       0.110000
     65 H29          5.5430    -2.0210     1.8260 h1         1 CY5       0.110000
     66 H30          5.7360    -0.1370     3.3160 hc         1 CY5       0.099500
     67 H31          6.5020     0.3220     1.7970 hc         1 CY5       0.099500
     68 H32          5.2010     2.2050     2.6450 h1         1 CY5       0.110500
     69 H33          4.4070     1.6080     1.1590 h1         1 CY5       0.110500
     70 H36          2.1150    -1.7610    -2.8210 hc         1 CY5       0.083333
     71 H37          3.5470    -2.0480    -3.8260 hc         1 CY5       0.083333
     72 H38          3.3460    -2.9280    -2.2970 hc         1 CY5       0.083333
     73 H39          4.0930     0.4810    -3.7990 hc         1 CY5       0.083333
     74 H40          2.6760     0.8010    -2.7830 hc         1 CY5       0.083333
     75 H41          4.2860     1.3320    -2.2520 hc         1 CY5       0.083333
@<TRIPOS>BOND
     1     1     2 1   
     2     1     6 1   
     3     1    39 1   
     4     2     3 1   
     5     2    40 1   
     6     3     4 1   
     7     3    41 1   
     8     4     5 1   
     9     4    29 1   
    10     5     6 1   
    11     5     7 1   
    12     6    42 1   
    13     7     8 1   
    14     7    37 1   
    15     7    38 1   
    16     8     9 1   
    17     8    29 1   
    18     9    10 1   
    19     9    43 1   
    20    10    11 1   
    21    10    44 1   
    22    11    21 1   
    23    11    45 1   
    24    12    13 1   
    25    12    17 1   
    26    12    46 1   
    27    13    14 1   
    28    13    47 1   
    29    14    15 1   
    30    14    48 1   
    31    15    16 1   
    32    15    22 1   
    33    16    17 1   
    34    16    18 1   
    35    17    49 1   
    36    18    19 1   
    37    18    27 1   
    38    18    28 1   
    39    19    20 1   
    40    19    22 1   
    41    20    21 1   
    42    20    50 1   
    43    21    51 1   
    44    22    23 1   
    45    23    24 1   
    46    23    52 1   
    47    23    53 1   
    48    24    25 1   
    49    24    54 1   
    50    24    55 1   
    51    25    26 1   
    52    25    56 1   
    53    25    57 1   
    54    27    58 1   
    55    27    59 1   
    56    27    60 1   
    57    28    61 1   
    58    28    62 1   
    59    28    63 1   
    60    29    30 1   
    61    30    31 1   
    62    30    64 1   
    63    30    65 1   
    64    31    32 1   
    65    31    66 1   
    66    31    67 1   
    67    32    33 1   
    68    32    68 1   
    69    32    69 1   
    70    33    34 1   
    71    34    35 1   
    72    34    36 1   
    73    37    70 1   
    74    37    71 1   
    75    37    72 1   
    76    38    73 1   
    77    38    74 1   
    78    38    75 1   
@<TRIPOS>SUBSTRUCTURE
     1 CY5         1 TEMP              0 ****  ****    0 ROOT
