@<TRIPOS>MOLECULE
C63
   22    21     1     0     0
SMALL
rc

@<TRIPOS>ATOM
      1 C3         -3.5930    0.4640    1.1700 c3        1 C63        -0.047969
      2 C4         -2.0880    0.6270    0.9120 c3        1 C63        -0.013049
      3 C5         -1.4140   -0.6210    0.3370 c3        1 C63        -0.012698
      4 C6          0.0820   -0.4210    0.0890 c3        1 C63         0.000348
      5 C7          0.7840   -1.6710   -0.4410 c3        1 C63         0.014702
      6 C8          2.2700   -1.4620   -0.6980 c3        1 C63         0.217794
      7 O2          2.8890   -1.1030    0.5010 os        1 C63        -0.495400
      8 P1          4.5150   -0.8400    0.5120 p5        1 C63         1.165900
      9 O3          5.1450   -1.7930   -0.4130 o         1 C63        -0.776100
     10 O4          4.8880   -0.6590    1.9230 o         1 C63        -0.776100
     11 H4         -3.7800   -0.3660    1.8410 hc        1 C63        -0.014387
     12 H5         -3.9720    1.3650    1.6530 hc        1 C63        -0.014387
     13 H6         -1.6120    0.8790    1.8560 hc        1 C63         0.012867
     14 H7         -1.9140    1.4750    0.2550 hc        1 C63         0.012867
     15 H8         -1.5620   -1.4520    1.0240 hc        1 C63        -0.004568
     16 H9         -1.9020   -0.9120   -0.5940 hc        1 C63        -0.004568
     17 H10         0.5690   -0.1160    1.0090 hc        1 C63         0.013669
     18 H11         0.2210    0.3960   -0.6200 hc        1 C63         0.013669
     19 H12         0.3120   -1.9940   -1.3700 hc        1 C63        -0.017866
     20 H13         0.6660   -2.4820    0.2750 hc        1 C63        -0.017866
     21 H14         2.7140   -2.3680   -1.0910 h1        1 C63         0.024920
     22 H15         2.4090   -0.6810   -1.4430 h1        1 C63         0.024920
@<TRIPOS>BOND
     1     1     2 1  
     2     2     3 1  
     3     3     4 1  
     4     4     5 1  
     5     5     6 1  
     6     6     7 1  
     7     7     8 1  
     8     8     9 1  
     9     8    10 1  
    10     1    11 1  
    11     1    12 1  
    12     2    13 1  
    13     2    14 1  
    14     3    15 1  
    15     3    16 1  
    16     4    17 1  
    17     4    18 1  
    18     5    19 1  
    19     5    20 1  
    20     6    21 1  
    21     6    22 1  
@<TRIPOS>SUBSTRUCTURE
     1 C63         1 TEMP              0 ****  ****    0 ROOT
