@<TRIPOS>MOLECULE
C65
   19    18     1     0     0
SMALL
rc

@<TRIPOS>ATOM
      1 C3         -3.5930    0.4640    1.1700 c3        1 C65        -0.047969
      2 C4         -2.0880    0.6270    0.9120 c3        1 C65        -0.013049
      3 C5         -1.4140   -0.6210    0.3370 c3        1 C65        -0.012698
      4 C6          0.0820   -0.4210    0.0890 c3        1 C65         0.000348
      5 C7          0.7840   -1.6710   -0.4410 c3        1 C65         0.014702
      6 C8          2.2700   -1.4620   -0.6980 c3        1 C65         0.217794
      7 O2          2.8890   -1.1030    0.5010 os        1 C65        -0.495400
      8 H4         -3.7800   -0.3660    1.8410 hc        1 C65        -0.014387
      9 H5         -3.9720    1.3650    1.6530 hc        1 C65        -0.014387
     10 H6         -1.6120    0.8790    1.8560 hc        1 C65         0.012867
     11 H7         -1.9140    1.4750    0.2550 hc        1 C65         0.012867
     12 H8         -1.5620   -1.4520    1.0240 hc        1 C65        -0.004568
     13 H9         -1.9020   -0.9120   -0.5940 hc        1 C65        -0.004568
     14 H10         0.5690   -0.1160    1.0090 hc        1 C65         0.013669
     15 H11         0.2210    0.3960   -0.6200 hc        1 C65         0.013669
     16 H12         0.3120   -1.9940   -1.3700 hc        1 C65        -0.017866
     17 H13         0.6660   -2.4820    0.2750 hc        1 C65        -0.017866
     18 H14         2.7140   -2.3680   -1.0910 h1        1 C65         0.024920
     19 H15         2.4090   -0.6810   -1.4430 h1        1 C65         0.024920
@<TRIPOS>BOND
     1     1     2 1  
     2     2     3 1  
     3     3     4 1  
     4     4     5 1  
     5     5     6 1  
     6     6     7 1  
     7     1     8 1  
     8     1     9 1  
     9     2    10 1  
    10     2    11 1  
    11     3    12 1  
    12     3    13 1  
    13     4    14 1  
    14     4    15 1  
    15     5    16 1  
    16     5    17 1  
    17     6    18 1  
    18     6    19 1  
@<TRIPOS>SUBSTRUCTURE
     1 C65         1 TEMP              0 ****  ****    0 ROOT
