@<TRIPOS>MOLECULE
CY3
   71    74     1     0     0
SMALL
bcc


@<TRIPOS>ATOM
      1 C1          -2.3240     1.6750    -0.4710 c2         1 CY3      -0.288000
      2 C2          -0.9910     1.9180    -0.8120 c2         1 CY3       0.124000
      3 N1           0.0020     0.9780    -0.7210 nh         1 CY3      -0.202000
      4 C3           1.2510     1.4870    -1.1670 ca         1 CY3       0.060000
      5 C4           1.0900     2.8250    -1.5430 ca         1 CY3      -0.132000
      6 C5          -0.3680     3.2300    -1.3500 c3         1 CY3       0.012000
      7 C6          -0.4700     4.3810    -0.3100 c3         1 CY3      -0.198000
      8 C7          -0.9840     3.6500    -2.7130 c3         1 CY3      -0.198000
      9 C8           2.1790     3.5570    -2.0030 ca         1 CY3      -0.078000
     10 C9          -3.3980     2.5710    -0.5370 c2         1 CY3       0.080000
     11 C10         -4.7060     2.2210    -0.1850 c2         1 CY3      -0.322000
     12 C11         -5.7940     3.0950    -0.2320 c2         1 CY3       0.192000
     13 N2          -7.0660     2.7120     0.1010 nh         1 CY3      -0.092000
     14 C12         -7.9920     3.7840    -0.0070 ca         1 CY3       0.005000
     15 C13         -7.3000     4.9150    -0.4580 ca         1 CY3      -0.114000
     16 C14         -5.8220     4.5850    -0.6460 c3         1 CY3      -0.012000
     17 C15         -5.4130     4.7720    -2.1340 c3         1 CY3      -0.199000
     18 C16         -4.9540     5.4720     0.2890 c3         1 CY3      -0.199000
     19 C17         -7.9880     6.1050    -0.6640 ca         1 CY3      -0.086000
     20 C18         -9.3710     6.1430    -0.4080 ca         1 CY3      -0.129000
     21 C19        -10.0450     5.0010     0.0480 ca         1 CY3      -0.107000
     22 C20         -9.3620     3.7920     0.2580 ca         1 CY3      -0.109000
     23 C21         -7.4850     1.3710     0.5340 c3         1 CY3      -0.046000
     24 C22         -7.4190     1.2100     2.0660 c3         1 CY3      -0.245000
     25 C23         -8.0400    -0.0870     2.5600 c3         1 CY3       0.132000
     26 O1          -7.1590    -1.2520     2.1940 o          1 CY3      -0.782000
     27 C24          3.4310     2.9200    -2.0850 ca         1 CY3      -0.156000
     28 C25          3.5780     1.5760    -1.7130 ca         1 CY3      -0.095000
     29 C26          2.4810     0.8340    -1.2460 ca         1 CY3      -0.154000
     30 C27         -0.1390    -0.4040    -0.2360 c3         1 CY3      -0.021000
     31 C28         -0.4590    -1.3830    -1.3810 c3         1 CY3      -0.210000
     32 C29         -0.4130    -2.8470    -0.9740 c3         1 CY3       0.031000
     33 O5          -1.5750    -3.2040    -0.0850 os         1 CY3      -0.722000
     34 P2          -1.3600    -3.6680     1.5510 p3         1 CY3       2.496000
     35 O6          -0.7990    -2.6120     2.5970 o          1 CY3      -0.993000
     36 O7          -2.8990    -4.3250     1.8440 o          1 CY3      -0.993000
     37 H1          -2.5690     0.6730    -0.1330 ha         1 CY3       0.191000
     38 H2           0.1070     5.2390    -0.6710 hc         1 CY3       0.085667
     39 H3          -1.5040     4.7040    -0.1630 hc         1 CY3       0.085667
     40 H4          -0.0600     4.0700     0.6560 hc         1 CY3       0.085667
     41 H5          -0.9380     2.8270    -3.4320 hc         1 CY3       0.085667
     42 H6          -3.2070     3.5800    -0.8740 ha         1 CY3       0.108000
     43 H7          -4.8750     1.2030     0.1550 ha         1 CY3       0.279000
     44 H8          -5.5890     5.8130    -2.4240 hc         1 CY3       0.092333
     45 H9          -4.3540     4.5480    -2.2890 hc         1 CY3       0.092333
     46 H10         -6.0070     4.1240    -2.7860 hc         1 CY3       0.092333
     47 H11         -5.2250     5.3160     1.3380 hc         1 CY3       0.092333
     48 H12         -3.8880     5.2640     0.1700 hc         1 CY3       0.092333
     49 H13         -5.1220     6.5250     0.0420 hc         1 CY3       0.092333
     50 H14         -7.4710     6.9930    -1.0150 ha         1 CY3       0.144000
     51 H15         -9.9210     7.0650    -0.5640 ha         1 CY3       0.143000
     52 H16        -11.1110     5.0460     0.2450 ha         1 CY3       0.146000
     53 H17         -9.8880     2.9150     0.6170 ha         1 CY3       0.158000
     54 H18         -8.5120     1.2210     0.1820 h1         1 CY3       0.127000
     55 H19         -6.8720     0.6240     0.0300 h1         1 CY3       0.127000
     56 H20         -6.3740     1.2390     2.3930 hc         1 CY3       0.069000
     57 H21         -7.9410     2.0410     2.5560 hc         1 CY3       0.069000
     58 H22         -8.0800    -0.1280     3.6490 h1         1 CY3      -0.031500
     59 H23         -9.0470    -0.2500     2.1620 h1         1 CY3      -0.031500
     60 H26         -2.0260     3.9630    -2.6080 hc         1 CY3       0.085667
     61 H27         -0.4160     4.4950    -3.1160 hc         1 CY3       0.085667
     62 H28          2.0710     4.5970    -2.2950 ha         1 CY3       0.137000
     63 H29          4.2920     3.4750    -2.4420 ha         1 CY3       0.137000
     64 H30          4.5490     1.0980    -1.7880 ha         1 CY3       0.138000
     65 H31          2.6000    -0.2070    -0.9680 ha         1 CY3       0.144000
     66 H32          0.8100    -0.6760     0.2390 h1         1 CY3       0.107000
     67 H33         -0.8990    -0.4390     0.5440 h1         1 CY3       0.107000
     68 H34         -1.4520    -1.1650    -1.7900 hc         1 CY3       0.113000
     69 H35          0.2680    -1.2500    -2.1930 hc         1 CY3       0.113000
     70 H36         -0.5640    -3.4970    -1.8370 h1         1 CY3       0.093500
     71 H37          0.5230    -3.1220    -0.4760 h1         1 CY3       0.093500
@<TRIPOS>BOND
     1     1     2 1   
     2     1    10 1   
     3     1    37 1   
     4     2     3 1   
     5     2     6 1   
     6     3     4 1   
     7     3    30 1   
     8     4     5 1   
     9     4    29 1   
    10     5     6 1   
    11     5     9 1   
    12     6     7 1   
    13     6     8 1   
    14     7    38 1   
    15     7    39 1   
    16     7    40 1   
    17     8    41 1   
    18     8    60 1   
    19     8    61 1   
    20     9    27 1   
    21     9    62 1   
    22    10    11 1   
    23    10    42 1   
    24    11    12 1   
    25    11    43 1   
    26    12    13 1   
    27    12    16 1   
    28    13    14 1   
    29    13    23 1   
    30    14    15 1   
    31    14    22 1   
    32    15    16 1   
    33    15    19 1   
    34    16    17 1   
    35    16    18 1   
    36    17    44 1   
    37    17    45 1   
    38    17    46 1   
    39    18    47 1   
    40    18    48 1   
    41    18    49 1   
    42    19    20 1   
    43    19    50 1   
    44    20    21 1   
    45    20    51 1   
    46    21    22 1   
    47    21    52 1   
    48    22    53 1   
    49    23    24 1   
    50    23    54 1   
    51    23    55 1   
    52    24    25 1   
    53    24    56 1   
    54    24    57 1   
    55    25    26 1   
    56    25    58 1   
    57    25    59 1   
    58    27    28 1   
    59    27    63 1   
    60    28    29 1   
    61    28    64 1   
    62    29    65 1   
    63    30    31 1   
    64    30    66 1   
    65    30    67 1   
    66    31    32 1   
    67    31    68 1   
    68    31    69 1   
    69    32    33 1   
    70    32    70 1   
    71    32    71 1   
    72    33    34 1   
    73    34    35 1   
    74    34    36 1   
@<TRIPOS>SUBSTRUCTURE
     1 CY3         1 TEMP              0 ****  ****    0 ROOT
