@<TRIPOS>MOLECULE
CY3
   48    51     1     0     0
SMALL
rc

@<TRIPOS>ATOM
      1 C1         -3.5700   -2.4910    0.5720 c3        1 CY3        -0.081223
      2 C2         -3.6980   -1.2220   -0.2890 c5        1 CY3         0.034606
      3 C3         -3.8530   -1.5840   -1.7800 c3        1 CY3        -0.081223
      4 C4         -4.8270   -0.3320    0.1840 ca        1 CY3         0.003705
      5 C5         -6.1800   -0.5670    0.2940 ca        1 CY3        -0.178508
      6 C6         -7.0000    0.4470    0.7790 ca        1 CY3        -0.103797
      7 C7         -6.4620    1.6690    1.1460 ca        1 CY3        -0.119986
      8 C8         -5.0980    1.9170    1.0360 ca        1 CY3        -0.231133
      9 C9         -4.3120    0.8980    0.5440 ca        1 CY3         0.023830
     10 N1         -2.9070    0.8950    0.3260 nh        1 CY3         0.219130
     11 C10        -2.4890   -0.2980   -0.0880 ce        1 CY3        -0.000537
     12 C11        -1.1920   -0.7410   -0.3400 ce        1 CY3        -0.231229
     13 C12         0.0070   -0.1790    0.0820 cf        1 CY3        -0.290481
     14 C13         1.2510   -0.7110   -0.2370 cf        1 CY3        -0.231229
     15 C14         2.5110   -0.2410    0.1300 c2        1 CY3        -0.000537
     16 C15         3.7770   -0.7010   -0.6060 c5        1 CY3         0.034606
     17 C16         4.0080   -2.2090   -0.3820 c3        1 CY3        -0.081223
     18 C17         3.6880   -0.3780   -2.1080 c3        1 CY3        -0.081223
     19 N2          2.8450    0.6070    1.0990 nh        1 CY3         0.219130
     20 C18         4.2390    0.8900    1.0740 ca        1 CY3         0.023830
     21 C19         4.8350    0.1310    0.0870 ca        1 CY3         0.003705
     22 C20         6.1940    0.2220   -0.1210 ca        1 CY3        -0.178508
     23 C21         6.9370    1.0920    0.6710 ca        1 CY3        -0.103797
     24 C22         6.3180    1.8540    1.6480 ca        1 CY3        -0.119986
     25 C23         4.9470    1.7670    1.8670 ca        1 CY3        -0.231133
     26 H1         -4.4720   -3.0850    0.4760 hc        1 CY3         0.048021
     27 H2         -3.4390   -2.2460    1.6190 hc        1 CY3         0.048021
     28 H3         -2.7340   -3.1010    0.2530 hc        1 CY3         0.048021
     29 H4         -3.9160   -0.6970   -2.3990 hc        1 CY3         0.048021
     30 H5         -4.7630   -2.1550   -1.9170 hc        1 CY3         0.048021
     31 H6         -3.0240   -2.1910   -2.1280 hc        1 CY3         0.048021
     32 H7         -6.6030   -1.5150    0.0160 ha        1 CY3         0.180718
     33 H8         -8.0560    0.2790    0.8740 ha        1 CY3         0.140174
     34 H9         -7.1060    2.4410    1.5260 ha        1 CY3         0.147977
     35 H10        -4.6950    2.8650    1.3370 ha        1 CY3         0.220590
     36 H11        -1.1270   -1.6860   -0.8440 ha        1 CY3         0.181098
     37 H12        -0.0290    0.7060    0.6820 ha        1 CY3         0.465850
     38 H13         1.2590   -1.5310   -0.9280 ha        1 CY3         0.181098
     39 H14         4.9540   -2.4960   -0.8270 hc        1 CY3         0.048021
     40 H15         3.2290   -2.8020   -0.8470 hc        1 CY3         0.048021
     41 H16         4.0460   -2.4510    0.6730 hc        1 CY3         0.048021
     42 H17         3.5030    0.6770   -2.2750 hc        1 CY3         0.048021
     43 H18         4.6250   -0.6350   -2.5890 hc        1 CY3         0.048021
     44 H19         2.9000   -0.9460   -2.5870 hc        1 CY3         0.048021
     45 H20         6.6800   -0.3630   -0.8810 ha        1 CY3         0.180718
     46 H21         7.9960    1.1770    0.5200 ha        1 CY3         0.140174
     47 H22         6.9020    2.5270    2.2470 ha        1 CY3         0.147977
     48 H23         4.4800    2.3740    2.6190 ha        1 CY3         0.220590
@<TRIPOS>BOND
     1     1     2 1  
     2     2     3 1  
     3     2     4 1  
     4     4     5 ar 
     5     5     6 ar 
     6     6     7 ar 
     7     7     8 ar 
     8     8     9 ar 
     9     9    10 1  
    10    10    11 2  
    11    11    12 1  
    12    12    13 2  
    13    13    14 1  
    14    14    15 2  
    15    15    16 1  
    16    16    17 1  
    17    16    18 1  
    18    15    19 1  
    19    19    20 1  
    20    20    21 ar 
    21    21    22 ar 
    22    22    23 ar 
    23    23    24 ar 
    24    24    25 ar 
    25    11     2 1  
    26     9     4 ar 
    27    21    16 1  
    28    25    20 ar 
    29     1    26 1  
    30     1    27 1  
    31     1    28 1  
    32     3    29 1  
    33     3    30 1  
    34     3    31 1  
    35     5    32 1  
    36     6    33 1  
    37     7    34 1  
    38     8    35 1  
    39    12    36 1  
    40    13    37 1  
    41    14    38 1  
    42    17    39 1  
    43    17    40 1  
    44    17    41 1  
    45    18    42 1  
    46    18    43 1  
    47    18    44 1  
    48    22    45 1  
    49    23    46 1  
    50    24    47 1  
    51    25    48 1  
@<TRIPOS>SUBSTRUCTURE
     1 CY3         1 TEMP              0 ****  ****    0 ROOT
