@<TRIPOS>MOLECULE
CY5
   52    55     1     0     0
SMALL
rc

@<TRIPOS>ATOM
      1 C1          3.2010    2.0320   -1.0930 c3        1 CY5         0.012051
      2 C2          3.8920    1.1490   -0.0350 c5        1 CY5         0.020327
      3 C3          3.4270    1.4990    1.3920 c3        1 CY5         0.012051
      4 C4          5.3990    1.2810   -0.1430 ca        1 CY5        -0.012267
      5 C5          6.2130    2.3810    0.0180 ca        1 CY5        -0.186624
      6 C6          7.5870    2.2290   -0.1390 ca        1 CY5        -0.100618
      7 C7          8.1210    0.9910   -0.4530 ca        1 CY5        -0.109021
      8 C8          7.3070   -0.1250   -0.6180 ca        1 CY5        -0.214117
      9 C9          5.9490    0.0530   -0.4560 ca        1 CY5        -0.001317
     10 N1          4.9070   -0.8970   -0.5650 nh        1 CY5         0.291707
     11 C10         3.7110   -0.3490   -0.3390 ce        1 CY5         0.015005
     12 C11         2.5420   -1.0970   -0.3940 ce        1 CY5        -0.259808
     13 C12         1.2540   -0.6160   -0.1740 cf        1 CY5        -0.081796
     14 C13         0.1030   -1.3870   -0.2350 cf        1 CY5        -0.193331
     15 C14        -1.1460   -0.8320   -0.0030 ce        1 CY5        -0.081796
     16 C15        -2.3460   -1.5370   -0.0460 ce        1 CY5        -0.259808
     17 C16        -3.6100   -1.0090    0.1820 c2        1 CY5         0.015005
     18 C17        -4.0100    0.4360    0.5290 c5        1 CY5         0.020327
     19 C18        -3.6430    1.4150   -0.6050 c3        1 CY5         0.012051
     20 C19        -3.4180    0.8810    1.8810 c3        1 CY5         0.012051
     21 N2         -4.7080   -1.7640    0.1190 nh        1 CY5         0.291707
     22 C20        -5.8780   -1.0140    0.3870 ca        1 CY5        -0.001317
     23 C21        -5.5170    0.2970    0.6360 ca        1 CY5        -0.012267
     24 C22        -6.4830    1.2360    0.9250 ca        1 CY5        -0.186624
     25 C23        -7.8150    0.8400    0.9610 ca        1 CY5        -0.100618
     26 C24        -8.1590   -0.4780    0.7090 ca        1 CY5        -0.109021
     27 C25        -7.1910   -1.4320    0.4160 ca        1 CY5        -0.214117
     28 H1          2.1220    1.9580   -1.0490 hc        1 CY5         0.015292
     29 H2          3.4690    3.0680   -0.9250 hc        1 CY5         0.015292
     30 H3          3.5200    1.7630   -2.0940 hc        1 CY5         0.015292
     31 H4          3.7000    2.5240    1.6160 hc        1 CY5         0.015292
     32 H5          3.9020    0.8590    2.1260 hc        1 CY5         0.015292
     33 H6          2.3540    1.4110    1.5090 hc        1 CY5         0.015292
     34 H7          5.8040    3.3450    0.2620 ha        1 CY5         0.186287
     35 H8          8.2360    3.0760   -0.0170 ha        1 CY5         0.125055
     36 H9          9.1830    0.8830   -0.5720 ha        1 CY5         0.148018
     37 H10         7.7430   -1.0740   -0.8600 ha        1 CY5         0.176767
     38 H11         2.6290   -2.1400   -0.6250 ha        1 CY5         0.186876
     39 H12         1.1210    0.4230    0.0610 ha        1 CY5         0.235920
     40 H13         0.1810   -2.4340   -0.4670 ha        1 CY5         0.120833
     41 H14        -1.1680    0.2160    0.2240 ha        1 CY5         0.235920
     42 H15        -2.2780   -2.5830   -0.2760 ha        1 CY5         0.186876
     43 H16        -2.5730    1.5360   -0.7140 hc        1 CY5         0.015292
     44 H17        -4.0650    2.3890   -0.3860 hc        1 CY5         0.015292
     45 H18        -4.0470    1.0810   -1.5530 hc        1 CY5         0.015292
     46 H19        -2.3410    0.9870    1.8440 hc        1 CY5         0.015292
     47 H20        -3.6640    0.1760    2.6660 hc        1 CY5         0.015292
     48 H21        -3.8350    1.8430    2.1540 hc        1 CY5         0.015292
     49 H22        -6.2210    2.2600    1.1210 ha        1 CY5         0.186287
     50 H23        -8.5810    1.5590    1.1850 ha        1 CY5         0.125055
     51 H24        -9.1910   -0.7740    0.7390 ha        1 CY5         0.148018
     52 H25        -7.4810   -2.4470    0.2240 ha        1 CY5         0.176767
@<TRIPOS>BOND
     1     1     2 1  
     2     2     3 1  
     3     2     4 1  
     4     4     5 ar 
     5     5     6 ar 
     6     6     7 ar 
     7     7     8 ar 
     8     8     9 ar 
     9     9    10 1  
    10    10    11 2  
    11    11    12 1  
    12    12    13 2  
    13    13    14 1  
    14    14    15 2  
    15    15    16 1  
    16    16    17 2  
    17    17    18 1  
    18    18    19 1  
    19    18    20 1  
    20    17    21 1  
    21    21    22 1  
    22    22    23 ar 
    23    23    24 ar 
    24    24    25 ar 
    25    25    26 ar 
    26    26    27 ar 
    27    11     2 1  
    28     9     4 ar 
    29    23    18 1  
    30    27    22 ar 
    31     1    28 1  
    32     1    29 1  
    33     1    30 1  
    34     3    31 1  
    35     3    32 1  
    36     3    33 1  
    37     5    34 1  
    38     6    35 1  
    39     7    36 1  
    40     8    37 1  
    41    12    38 1  
    42    13    39 1  
    43    14    40 1  
    44    15    41 1  
    45    16    42 1  
    46    19    43 1  
    47    19    44 1  
    48    19    45 1  
    49    20    46 1  
    50    20    47 1  
    51    20    48 1  
    52    24    49 1  
    53    25    50 1  
    54    26    51 1  
    55    27    52 1  
@<TRIPOS>SUBSTRUCTURE
     1 CY5         1 TEMP              0 ****  ****    0 ROOT
