@<TRIPOS>MOLECULE
DE3
   17    16     1     0     0
SMALL
rc

@<TRIPOS>ATOM
      1 C3         -1.7650   -0.2740    0.7250 c3        1 DE3         0.026387
      2 C4         -1.8770   -1.7010    0.2050 c3        1 DE3        -0.057748
      3 O2         -0.7440   -2.4660    0.5160 os        1 DE3        -0.350509
      4 C5          0.3360   -2.4280   -0.3870 c3        1 DE3        -0.206736
      5 C6          1.5710   -1.7620    0.1940 c3        1 DE3         0.793630
      6 O3          1.4070   -0.3870    0.3780 os        1 DE3        -0.495400
      7 P1          1.6650    0.6770   -0.8480 p5        1 DE3         1.165900
      8 O4          1.7600   -0.0760   -2.1080 o         1 DE3        -0.776100
      9 O5          0.7120    1.7810   -0.6160 o         1 DE3        -0.776100
     10 H4         -1.7250   -0.2840    1.8150 hc        1 DE3        -0.003240
     11 H5         -0.8400    0.1810    0.4040 hc        1 DE3        -0.003240
     12 H6         -2.0460   -1.6930   -0.8680 h1        1 DE3         0.046197
     13 H7         -2.7240   -2.2030    0.6570 h1        1 DE3         0.046197
     14 H8          0.5870   -3.4600   -0.6300 h1        1 DE3         0.141084
     15 H9          0.0650   -1.9240   -1.3050 h1        1 DE3         0.141084
     16 H10         1.7790   -2.1920    1.1680 h1        1 DE3        -0.192354
     17 H11         2.4090   -1.9690   -0.4620 h1        1 DE3        -0.192354
@<TRIPOS>BOND
     1     1     2 1  
     2     2     3 1  
     3     3     4 1  
     4     4     5 1  
     5     5     6 1  
     6     6     7 1  
     7     7     8 1  
     8     7     9 1  
     9     1    10 1  
    10     1    11 1  
    11     2    12 1  
    12     2    13 1  
    13     4    14 1  
    14     4    15 1  
    15     5    16 1  
    16     5    17 1  
@<TRIPOS>SUBSTRUCTURE
     1 DE3         1 TEMP              0 ****  ****    0 ROOT
