@<TRIPOS>MOLECULE
DE5
   14    13     1     0     0
SMALL
rc

@<TRIPOS>ATOM
      1 C3         -1.7650   -0.2740    0.7250 c3        1 DE5         0.026387
      2 C4         -1.8770   -1.7010    0.2050 c3        1 DE5        -0.057748
      3 O2         -0.7440   -2.4660    0.5160 os        1 DE5        -0.350509
      4 C5          0.3360   -2.4280   -0.3870 c3        1 DE5        -0.206736
      5 C6          1.5710   -1.7620    0.1940 c3        1 DE5         0.793630
      6 O3          1.4070   -0.3870    0.3780 os        1 DE5        -0.495400
      7 H4         -1.7250   -0.2840    1.8150 hc        1 DE5        -0.003240
      8 H5         -0.8400    0.1810    0.4040 hc        1 DE5        -0.003240
      9 H6         -2.0460   -1.6930   -0.8680 h1        1 DE5         0.046197
     10 H7         -2.7240   -2.2030    0.6570 h1        1 DE5         0.046197
     11 H8          0.5870   -3.4600   -0.6300 h1        1 DE5         0.141084
     12 H9          0.0650   -1.9240   -1.3050 h1        1 DE5         0.141084
     13 H10         1.7790   -2.1920    1.1680 h1        1 DE5        -0.192354
     14 H11         2.4090   -1.9690   -0.4620 h1        1 DE5        -0.192354
@<TRIPOS>BOND
     1     1     2 1  
     2     2     3 1  
     3     3     4 1  
     4     4     5 1  
     5     5     6 1  
     6     1     7 1  
     7     1     8 1  
     8     2     9 1  
     9     2    10 1  
    10     4    11 1  
    11     4    12 1  
    12     5    13 1  
    13     5    14 1  
@<TRIPOS>SUBSTRUCTURE
     1 DE5         1 TEMP              0 ****  ****    0 ROOT
