@<TRIPOS>MOLECULE
SQA
   52    56     1     0     0
SMALL
rc

@<TRIPOS>ATOM
      1 C1          4.7520    2.5360    0.7210 c3        1 SQA        -0.112912
      2 C2          4.8740    1.0040    0.6840 c5        1 SQA        -0.028512
      3 C3          5.4300    0.4720    2.0190 c3        1 SQA        -0.112912
      4 C4          3.5190    0.3470    0.3580 c2        1 SQA        -0.032172
      5 C5          2.4260    0.5710    1.1530 ce        1 SQA        -0.132835
      6 C6          1.0410    0.3620    1.0090 cc        1 SQA        -0.002533
      7 C7          0.0010    0.0190    0.0420 cd        1 SQA         0.313749
      8 O1         -0.0180   -0.3510   -1.1130 o         1 SQA        -0.507355
      9 C8         -1.0070    0.3090    1.0600 cd        1 SQA        -0.002533
     10 C9         -2.3850    0.2360    1.3390 ce        1 SQA        -0.132835
     11 C10        -3.5030   -0.0320    0.5950 ce        1 SQA        -0.032172
     12 C11        -4.8410   -0.3650    1.2810 c5        1 SQA        -0.028512
     13 C12        -4.7040   -1.5930    2.1960 c3        1 SQA        -0.112912
     14 C13        -5.3620    0.8480    2.0760 c3        1 SQA        -0.112912
     15 C14        -5.7240   -0.6550    0.0850 ca        1 SQA         0.018933
     16 C15        -7.0400   -1.0490    0.0050 ca        1 SQA        -0.086038
     17 C16        -7.6120   -1.2490   -1.2500 ca        1 SQA        -0.155157
     18 C17        -6.8610   -1.0530   -2.3950 ca        1 SQA        -0.174856
     19 C18        -5.5290   -0.6520   -2.3250 ca        1 SQA        -0.199733
     20 C19        -4.9880   -0.4540   -1.0710 ca        1 SQA         0.022205
     21 N1         -3.6870   -0.0440   -0.7420 nh        1 SQA         0.240055
     22 C20         0.0330    0.6500    2.0160 c         1 SQA         0.313749
     23 O2          0.0520    1.0170    3.1640 o         1 SQA        -0.507355
     24 N2          3.6630   -0.4200   -0.7430 nh        1 SQA         0.240055
     25 C21         4.9500   -0.2890   -1.2870 ca        1 SQA         0.022205
     26 C22         5.4520   -0.8590   -2.4390 ca        1 SQA        -0.199733
     27 C23         6.7760   -0.5860   -2.7680 ca        1 SQA        -0.174856
     28 C24         7.5590    0.2310   -1.9720 ca        1 SQA        -0.155157
     29 C25         7.0260    0.8010   -0.8180 ca        1 SQA        -0.086038
     30 C26         5.7180    0.5390   -0.4840 ca        1 SQA         0.018933
     31 H1          4.1100    2.8580    1.5320 hc        1 SQA         0.055528
     32 H2          4.3460    2.9180   -0.2080 hc        1 SQA         0.055528
     33 H3          5.7310    2.9800    0.8690 hc        1 SQA         0.055528
     34 H4          5.5020   -0.6090    2.0100 hc        1 SQA         0.055528
     35 H5          6.4240    0.8750    2.1870 hc        1 SQA         0.055528
     36 H6          4.8020    0.7680    2.8510 hc        1 SQA         0.055528
     37 H7          2.6490    1.0880    2.0690 ha        1 SQA         0.041876
     38 H8         -2.5750    0.3480    2.3910 ha        1 SQA         0.041876
     39 H9         -4.3220   -2.4460    1.6490 hc        1 SQA         0.055528
     40 H10        -4.0350   -1.3910    3.0240 hc        1 SQA         0.055528
     41 H11        -5.6750   -1.8580    2.6030 hc        1 SQA         0.055528
     42 H12        -4.7070    1.0830    2.9060 hc        1 SQA         0.055528
     43 H13        -5.4440    1.7250    1.4440 hc        1 SQA         0.055528
     44 H14        -6.3470    0.6270    2.4750 hc        1 SQA         0.055528
     45 H15        -7.6250   -1.2040    0.8940 ha        1 SQA         0.097842
     46 H16        -8.6370   -1.5600   -1.3280 ha        1 SQA         0.134157
     47 H17        -7.3070   -1.2160   -3.3590 ha        1 SQA         0.161723
     48 H18        -4.9540   -0.5160   -3.2210 ha        1 SQA         0.181305
     49 H19         4.8510   -1.4840   -3.0720 ha        1 SQA         0.181305
     50 H20         7.1920   -1.0160   -3.6610 ha        1 SQA         0.161723
     51 H21         8.5790    0.4300   -2.2470 ha        1 SQA         0.134157
     52 H22         7.6360    1.4380   -0.2020 ha        1 SQA         0.097842
@<TRIPOS>BOND
     1     1     2 1  
     2     2     3 1  
     3     2     4 1  
     4     4     5 2  
     5     5     6 1  
     6     6     7 2  
     7     7     8 1  
     8     7     9 1  
     9     9    10 2  
    10    10    11 1  
    11    11    12 1  
    12    12    13 1  
    13    12    14 1  
    14    12    15 1  
    15    15    16 ar 
    16    16    17 ar 
    17    17    18 ar 
    18    18    19 ar 
    19    19    20 ar 
    20    20    21 1  
    21     9    22 1  
    22    22    23 2  
    23     4    24 1  
    24    24    25 1  
    25    25    26 ar 
    26    26    27 ar 
    27    27    28 ar 
    28    28    29 ar 
    29    29    30 ar 
    30    30     2 1  
    31    22     6 1  
    32    30    25 ar 
    33    21    11 2  
    34    20    15 ar 
    35     1    31 1  
    36     1    32 1  
    37     1    33 1  
    38     3    34 1  
    39     3    35 1  
    40     3    36 1  
    41     5    37 1  
    42    10    38 1  
    43    13    39 1  
    44    13    40 1  
    45    13    41 1  
    46    14    42 1  
    47    14    43 1  
    48    14    44 1  
    49    16    45 1  
    50    17    46 1  
    51    18    47 1  
    52    19    48 1  
    53    26    49 1  
    54    27    50 1  
    55    28    51 1  
    56    29    52 1  
@<TRIPOS>SUBSTRUCTURE
     1 SQA         1 TEMP              0 ****  ****    0 ROOT
