@<TRIPOS>MOLECULE
C33
   13    12     1     0     0
SMALL
rc

@<TRIPOS>ATOM
      1 C3         -1.8850    0.1650    0.3100 c3        1 C33        -0.021889
      2 C4         -0.7140   -0.3510   -0.5220 c3        1 C33         0.023890
      3 C5          0.5200   -0.5700    0.3420 c3        1 C33         0.210839
      4 O2          1.5430   -1.0720   -0.4590 os        1 C33        -0.495400
      5 P1          3.0200   -1.3220    0.2260 p5        1 C33         1.165900
      6 O3          3.8190   -2.0500   -0.7710 o         1 C33        -0.776100
      7 O4          2.8170   -1.7480    1.6190 o         1 C33        -0.776100
      8 H4         -2.1190   -0.5300    1.1150 hc        1 C33        -0.030689
      9 H5         -1.6160    1.0960    0.8090 hc        1 C33        -0.030689
     10 H6         -0.9830   -1.2850   -1.0040 hc        1 C33        -0.022398
     11 H7         -0.4840    0.3520   -1.3150 hc        1 C33        -0.022398
     12 H8          0.3030   -1.2630    1.1480 h1        1 C33         0.040866
     13 H9          0.8210    0.3690    0.8010 h1        1 C33         0.040866
@<TRIPOS>BOND
     1     1     2 1  
     2     2     3 1  
     3     3     4 1  
     4     4     5 1  
     5     5     6 1  
     6     5     7 1  
     7     1     8 1  
     8     1     9 1  
     9     2    10 1  
    10     2    11 1  
    11     3    12 1  
    12     3    13 1  
@<TRIPOS>SUBSTRUCTURE
     1 C33         1 TEMP              0 ****  ****    0 ROOT
